launcher/output/tcopflowout/t1.m
function mpc = t1

%%-----  Power Flow Data  -----%%
%% system MVA base
mpc.baseMVA = 100;

%% OPF objective
mpc.obj = 0;

%% OPF convergence status
mpc.converged = 1;

%% bus data
%	bus_i	type	Pd	Qd	Gs	Bs	area	Vm	Va	baseKV	zone	Vmax	Vmin	mult_Pmis	mult_Qmis	Pslack	Qslack
mpc.bus = [
	1	1	0	0	0	0	1	0.972938463	-0.85330702	115	2	1.1	0.9	1.26839494e-08	-1.42308379e-08	0	0;
	2	1	4.56925766	1.29843587	0	0	1	0.972862279	-0.862013297	115	2	1.1	0.9	1.66327218e-08	-1.27082637e-08	0	0;
	3	1	0	0	0	0	1	1.01171602	-4.09279205	115	4	1.1	0.9	-8.34871579e-08	-5.35236125e-07	0	0;
	4	1	1.07271336	0.302883772	0	0	1	1.01170005	-4.09467827	115	4	1.1	0.9	-8.26477658e-08	-5.35154591e-07	0	0;
	5	1	0	0	0	0	1	0.993280819	-2.49177284	115	6	1.1	0.9	-4.24830599e-08	-3.45813829e-07	0	0;
	6	1	4.71302132	1.33980229	0	0	1	0.99320286	-2.50036697	115	6	1.1	0.9	-3.85868322e-08	-3.44614787e-07	0	0;
	7	1	0	0	0	0	1	0.968788386	-1.34553895	115	2	1.1	0.9	1.87182934e-08	-2.20024626e-10	0	0;
	8	1	14.6785084	4.18590993	0	0	1	0.968554373	-1.37250134	115	2	1.1	0.9	3.15109579e-08	3.88886931e-09	0	0;
	9	1	0	0	0	0	1	0.970407612	-1.05695562	115	2	1.1	0.9	1.52496505e-08	-6.29090288e-09	0	0;
	10	1	26.3891633	7.51856199	0	0	1	0.969940395	-1.11800343	115	2	1.1	0.9	3.94346103e-08	1.16013299e-09	0	0;
	11	1	0	0	0	0	1	1.02473977	-3.15039516	115	4	1.1	0.9	-7.7775194e-08	-5.66526427e-07	0	0;
	12	1	0.189302357	0.0567907072	0	0	1	1.02473682	-3.15074353	115	4	1.1	0.9	-7.76806988e-08	-5.6686419e-07	0	0;
	13	1	1.5901398	0.454325658	0	0	1	1.02471417	-3.15337043	115	4	1.1	0.9	-7.65627117e-08	-5.66551821e-07	0	0;
	14	1	0	0	0	0	1	1.01499173	-2.51420246	230	4	1.1	0.9	-6.01352861e-08	-4.40512797e-07	0	0;
	15	1	0	0	0	30	1	1.02232983	-3.00409996	115	4	1.1	0.9	-6.51307878e-08	-4.84284504e-07	0	0;
	16	1	28.2439117	8.05166027	0	0	1	1.02192453	-3.05122451	115	4	1.1	0.9	-3.99307484e-08	-4.7737918e-07	0	0;
	17	1	0	0	0	0	1	0.989920328	-3.08764853	115	4	1.1	0.9	-2.94171138e-08	-2.269638e-07	0	0;
	18	1	0.448015579	0.126201572	0	0	1	0.989913046	-3.08863983	115	4	1.1	0.9	-2.90252638e-08	-2.26688956e-07	0	0;
	19	1	0.485876051	0.138821729	0	0	1	0.989913487	-3.08848152	115	4	1.1	0.9	-2.89916166e-08	-2.26714805e-07	0	0;
	20	1	0.71303888	0.201922515	0	0	1	0.989909029	-3.08896704	115	4	1.1	0.9	-2.87992609e-08	-2.26651328e-07	0	0;
	21	1	2.90894623	0.826620294	0	0	1	0.9898692	-3.09405043	115	4	1.1	0.9	-2.69857898e-08	-2.26108458e-07	0	0;
	22	1	0	0	0	0	1	1.02633067	-3.25535008	115	4	1.1	0.9	-8.81156384e-08	-6.31890989e-07	0	0;
	23	1	0.88972108	0.252403143	0	0	1	1.0263174	-3.25682482	115	4	1.1	0.9	-8.7471339e-08	-6.32062614e-07	0	0;
	24	1	1.51441886	0.429085344	0	0	1	1.0263077	-3.25771623	115	4	1.1	0.9	-8.69740202e-08	-6.31901439e-07	0	0;
	25	1	0	0	0	0	1	1.00168442	-2.78739717	115	6	1.1	0.9	-5.23121816e-08	-4.02851098e-07	0	0;
	26	1	0.800324374	0.231204819	0	0	1	1.00167245	-2.78872013	115	6	1.1	0.9	-5.16609591e-08	-4.02683369e-07	0	0;
	27	1	0	0	0	0	1	1.02714152	-3.27899138	115	4	1.1	0.9	-8.7524277e-08	-6.25042658e-07	0	0;
	28	1	1.47024831	0.422775265	0	0	1	1.0271168	-3.28202177	115	4	1.1	0.9	-8.64237567e-08	-6.25182723e-07	0	0;
	29	1	0	0	0	0	1	0.971407396	-0.671662071	115	2	1.1	0.9	1.2536795e-08	-1.8555336e-08	0	0;
	30	1	36.5355122	10.4122191	0	0	1	0.970809779	-0.736771916	115	2	1.1	0.9	4.86764084e-08	-7.8267977e-09	0	0;
	31	1	0	0	0	0	1	0.976474828	-3.1324311	115	7	1.1	0.9	-1.54868412e-08	-1.43022421e-07	0	0;
	32	1	0.359531915	0.105744681	0	0	1	0.976468166	-3.13322783	115	7	1.1	0.9	-1.51157085e-08	-1.42516091e-07	0	0;
	33	1	4.53997163	1.29713475	0	0	1	0.976401921	-3.14194767	115	7	1.1	0.9	-1.16380782e-08	-1.41545565e-07	0	0;
	34	1	0	0	0	0	1	1.0164725	-3.75156546	115	4	1.1	0.9	-8.770163e-08	-5.88061217e-07	0	0;
	35	1	13.0997231	3.73556652	0	0	1	1.01626323	-3.77706861	115	4	1.1	0.9	-7.70305695e-08	-5.85259343e-07	0	0;
	36	1	0	0	0	0	1	0.98451359	-3.14886912	115	7	1.1	0.9	-1.79720896e-08	-1.60604916e-07	0	0;
	37	1	2.5167234	0.71906383	0	0	1	0.984475168	-3.15358573	115	7	1.1	0.9	-1.58362664e-08	-1.59778324e-07	0	0;
	38	1	21.0149929	5.99219858	0	0	1	0.984156495	-3.1901262	115	7	1.1	0.9	4.66139949e-10	-1.55108951e-07	0	0;
	39	1	4.67576823	1.33142658	0	0	1	1.00073717	-4.30672687	115	4	1.1	0.9	-6.53856117e-08	-4.00013906e-07	0	0;
	40	1	1.28725603	0.365984558	0	0	1	1.00071932	-4.30890639	115	4	1.1	0.9	-6.43328575e-08	-3.99723553e-07	0	0;
	41	1	23.4740788	6.69201046	0	0	1	1.02119787	-4.61852906	115	5	1.1	0.9	-7.70935037e-08	-4.47224769e-07	0	0;
	42	1	6.70130345	1.91195381	0	0	1	1.0041414	-4.1255448	115	4	1.1	0.9	-6.720202e-08	-4.07053031e-07	0	0;
	43	1	1.29225284	0.364798649	0	0	1	0.972169528	-2.36507555	115	2	1.1	0.9	-5.23099363e-09	-9.01654818e-08	0	0;
	44	1	2.61868261	0.744589273	0	0	1	0.998326165	-3.5585521	115	4	1.1	0.9	-5.03315993e-08	-3.33602935e-07	0	0;
	45	1	0	0	0	0	1	0.990671191	-0.857791536	230	7	1.1	0.9	-2.42204725e-08	-2.49710816e-07	0	0;
	46	1	4.46947518	1.27598582	0	0	1	0.992108086	-1.38850244	115	7	1.1	0.9	-2.46573391e-08	-2.59946215e-07	0	0;
	47	1	0.971752102	0.277643458	0	0	1	1.02246866	-3.09270409	115	4	1.1	0.9	-8.23329236e-08	-6.13093683e-07	0	0;
	48	1	1.07895582	0.308273092	0	0	1	0.993182144	-2.69356132	115	6	1.1	0.9	-4.10471128e-08	-3.25714327e-07	0	0;
	49	2	0	0	0	0	1	0.996974358	-2.28503061	13.8	6	1.1	0.9	-4.97081518e-08	-3.23152782e-07	0	0;
	50	2	0	0	0	0	1	0.996083973	-2.38333711	13.8	6	1.1	0.9	-5.10267412e-08	-3.23883419e-07	0	0;
	51	2	0	0	0	0	1	0.997480004	-2.22175213	13.8	6	1.1	0.9	-5.47605155e-08	-3.25773196e-07	0	0;
	52	2	0	0	0	0	1	0.995923917	-2.4024555	13.8	6	1.1	0.9	-5.67527932e-08	-3.26723165e-07	0	0;
	53	2	0	0	0	0	1	0.999570668	-1.80103783	13.8	6	1.1	0.9	-4.91900454e-08	-3.27781605e-07	0	0;
	54	1	1.6784809	0.479565972	0	0	1	1.02089732	-3.26693612	115	4	1.1	0.9	-8.3850023e-08	-6.06568719e-07	0	0;
	55	1	0	0	0	0	1	0.987753968	-0.884274756	230	7	1.1	0.9	-2.07287419e-08	-2.23938305e-07	0	0;
	56	1	0.923503546	0.260836879	0	0	1	0.987606807	-1.10178205	115	7	1.1	0.9	-2.04287595e-08	-2.13678808e-07	0	0;
	57	1	1.77944216	0.504806287	0	0	1	1.00803736	-4.28368245	115	4	1.1	0.9	-7.91167414e-08	-4.90097306e-07	0	0;
	58	1	2.982	0.853007092	0	0	1	0.992418183	-3.29620311	115	7	1.1	0.9	-2.43735371e-08	-1.93338268e-07	0	0;
	59	1	2.92457222	0.834708774	0	0	1	0.978702343	-2.4574304	115	2	1.1	0.9	5.1195979e-10	-7.69322344e-08	0	0;
	60	1	2.34955062	0.667767019	0	0	1	0.982570907	-0.533633674	115	2	1.1	0.9	-1.67726478e-09	-1.06295786e-07	0	0;
	61	1	14.4870213	4.1310922	0	0	1	0.988439228	-1.45216078	115	7	1.1	0.9	-2.24807077e-08	-2.34723609e-07	0	0;
	62	1	13.5098782	3.84914793	0	0	1	1.00487001	-4.60734187	115	4	1.1	0.9	-7.76273906e-08	-4.52318848e-07	0	0;
	63	1	5.03544271	1.43238784	0	0	1	1.02511115	-3.61288747	115	4	1.1	0.9	-8.52924974e-08	-5.76484628e-07	0	0;
	64	1	0	0	0	0	1	0.994113656	-2.08995791	115	6	1.1	0.9	-4.3037241e-08	-3.73917415e-07	0	0;
	65	2	0	0	0	0	1	0.976690748	-0.102820634	13.8	6	1.1	0.9	-2.46788779e-08	-3.73250412e-07	0	0;
	66	1	0	0	0	0	1	1.02393289	-2.88513789	115	4	1.1	0.9	-7.95747363e-08	-6.14939703e-07	0	0;
	67	2	0	0	0	0	1	1.02497505	-2.77980579	13.8	4	1.1	0.9	-9.26528485e-08	-6.3490497e-07	0	0;
	68	2	0	0	0	0	1	1.02230422	-1.66668899	13.8	4	1.1	0.9	-6.69551138e-08	-6.42254773e-07	0	0;
	69	2	0	0	0	0	1	1.02361638	-2.44830405	13.8	4	1.1	0.9	-8.50012205e-08	-6.24341071e-07	0	0;
	70	2	0	0	0	0	1	1.02293272	-1.96804641	13.8	4	1.1	0.9	-7.46709258e-08	-6.35561092e-07	0	0;
	71	2	0	0	0	0	1	1.02364797	-2.51025982	13.8	4	1.1	0.9	-8.73620226e-08	-6.22751987e-07	0	0;
	72	2	0	0	0	0	1	1.02370041	-2.54209683	13.8	4	1.1	0.9	-8.80546116e-08	-6.2199421e-07	0	0;
	73	2	0	0	0	0	1	1.02340172	-2.21152384	13.8	4	1.1	0.9	-8.26492769e-08	-6.2976336e-07	0	0;
	74	1	11.1215446	3.17165585	0	0	1	0.990320835	-3.15205788	115	6	1.1	0.9	-4.12915859e-08	-3.05743581e-07	0	0;
	75	1	2.22589006	0.636851879	0	0	1	0.97858134	0.109349179	115	2	1.1	0.9	1.23079907e-08	1.75323638e-08	0	0;
	76	2	0	0	0	0	1	0.985532435	0.649774665	13.8	2	1.1	0.9	-3.18357967e-09	5.50552035e-08	0	0;
	77	2	0	0	0	0	1	0.989680207	1.02035243	13.8	2	1.1	0.9	-9.75264779e-08	4.07067163e-08	0	0;
	78	1	0	0	0	0	1	0.97858134	0.109349179	13.8	2	1.1	0.9	1.31354022e-08	3.50999447e-08	0	0;
	79	1	0	0	0	0	1	0.97858134	0.109349179	13.8	2	1.1	0.9	1.3342255e-08	4.44323407e-08	0	0;
	80	1	0.906145972	0.257149533	0	0	1	1.01925221	-4.22908824	115	5	1.1	0.9	-6.97068017e-08	-4.1236808e-07	0	0;
	81	1	0	0	0	0	1	0.996380496	-1.92131624	230	6	1.1	0.9	-3.40362464e-08	-2.70597665e-07	0	0;
	82	1	4.50552981	1.28644733	0	0	1	0.99441574	-2.34842491	115	6	1.1	0.9	-3.37835411e-08	-2.52818856e-07	0	0;
	83	1	2.21358865	0.62741844	0	0	1	0.9836535	-2.11520185	115	7	1.1	0.9	-1.33993452e-08	-1.43790363e-07	0	0;
	84	1	2.31863548	0.661583991	0	0	1	0.973510964	-2.51626555	115	2	1.1	0.9	-1.17061249e-08	-1.19602742e-07	0	0;
	85	1	3.04776796	0.870790844	0	0	1	0.997043792	-3.99143329	115	4	1.1	0.9	-5.34241269e-08	-3.42022427e-07	0	0;
	86	1	5.10099806	1.45301157	0	0	1	0.96947927	-1.20909259	115	2	1.1	0.9	1.67606942e-08	-2.79055027e-09	0	0;
	87	1	0	0	0	0	1	1.01159016	-3.08640502	230	3	1.1	0.9	-7.0137409e-08	-4.75181684e-07	0	0;
	88	1	30.2173363	8.61077721	0	0	1	1.01214777	-3.85104941	115	3	1.1	0.9	-7.91436466e-08	-4.75892544e-07	0	0;
	89	1	44.3070213	12.6259149	0	0	1	0.999832801	-3.61888533	115	7	1.1	0.9	-4.26235075e-08	-2.90298348e-07	0	0;
	90	2	0	0	0	0	1	1.01208705	-2.39750966	13.8	7	1.1	0.9	-1.40778993e-07	-4.58238056e-07	0	0;
	91	2	0	0	0	0	1	1.00432999	-3.19965949	13.8	7	1.1	0.9	-5.09725692e-08	-3.03829196e-07	0	0;
	92	1	0	0	0	0	1	0.999832801	-3.61888533	13.8	7	1.1	0.9	-4.26097139e-08	-2.90042765e-07	0	0;
	93	1	1.93088405	0.548976837	0	0	1	1.0269934	-3.37489904	115	4	1.1	0.9	-8.35408213e-08	-5.8626025e-07	0	0;
	94	2	0	0	0	0	1	1.02799852	-2.55370639	13.8	4	1.1	0.9	-7.93722635e-08	-6.21226662e-07	0	0;
	95	1	2.11489362	0.599219858	0	30	1	1.00541975	-3.58557506	115	7	1.1	0.9	-3.49346797e-08	-2.48213439e-07	0	0;
	96	1	2.08669504	0.592170213	0	0	1	1.00265379	-2.63915783	115	7	1.1	0.9	-4.43366447e-08	-3.30336218e-07	0	0;
	97	1	4.53215949	1.29225284	0	0	1	0.986355516	-1.70119481	115	2	1.1	0.9	-1.39799716e-08	-1.7172934e-07	0	0;
	98	1	0	0	0	0	1	0.975693846	0.387899658	230	2	1.1	0.9	6.1793756e-09	-2.26249712e-08	0	0;
	99	1	7.52474502	2.1455107	0	0	1	0.973516005	-0.261025652	115	2	1.1	0.9	1.0568719e-08	-1.28384728e-08	0	0;
	100	1	22.892431	6.52670004	0	80	1	1.02958403	-4.51419428	115	5	1.1	0.9	-7.63196668e-08	-4.43754143e-07	0	0;
	101	1	0.321517454	0.0927454193	0	0	1	0.970188968	-1.16832237	115	2	1.1	0.9	1.56903358e-08	-6.81520743e-09	0	0;
	102	1	0	0	0	0	1	0.986659671	-0.657251279	230	7	1.1	0.9	-2.03054395e-08	-2.20779541e-07	0	0;
	103	1	0	0	0	0	1	0.987528724	-1.13773907	115	7	1.1	0.9	-2.00839336e-08	-2.12812737e-07	0	0;
	104	2	0	0	0	0	1	0.98074209	0.785055425	13.8	7	1.1	0.9	-2.37451269e-08	-2.12414298e-07	0	0;
	105	2	0	0	0	0	1	0.974295317	1.53116013	13.8	7	1.1	0.9	-1.17322111e-08	-2.16996985e-07	0	0;
	106	1	1.45222695	0.415929078	0	0	1	0.985746186	-1.30782006	115	7	1.1	0.9	-1.52663475e-08	-1.80420252e-07	0	0;
	107	1	37.0529362	10.5603688	0	0	1	0.971273582	-3.17008788	115	7	1.1	0.9	-1.73815515e-08	-1.54913699e-07	0	0;
	108	1	5.82441233	1.65705149	0	0	1	0.977410656	-0.269970392	115	2	1.1	0.9	1.44025778e-08	1.67491127e-08	0	0;
	109	1	3.25600055	0.927581552	0	0	1	0.986392815	-2.3714958	115	4	1.1	0.9	-1.89265012e-08	-1.76140205e-07	0	0;
	110	1	6.71476836	1.91055564	0	0	1	0.970236063	-1.14745188	115	2	1.1	0.9	1.57549159e-08	-5.87419117e-09	0	0;
	111	1	5.40014019	1.53677459	0	0	1	1.01780141	-4.68643637	115	5	1.1	0.9	-7.72694818e-08	-4.44557584e-07	0	0;
	112	1	0	0	0	0	1	0.982679766	-0.842480711	230	7	1.1	0.9	-1.68174193e-08	-1.94275347e-07	0	0;
	113	1	0	0	0	0	1	0.974806165	-2.58574918	115	7	1.1	0.9	-1.83836112e-08	-1.51158476e-07	0	0;
	114	2	0	0	0	0	1	0.983349768	-0.665130295	13.8	7	1.1	0.9	-2.59950202e-08	-1.63450183e-07	0	0;
	115	2	0	0	0	0	1	0.974670108	1.09398808	13.8	7	1.1	0.9	-1.54628906e-08	-1.87466685e-07	0	0;
	116	1	0	0	0	0	1	0.974708097	0.311177411	230	2	1.1	0.9	3.80085577e-09	-3.98534575e-08	0	0;
	117	1	21.0717593	6.00372014	0	0	1	0.972537372	-0.948162624	115	2	1.1	0.9	8.29970763e-09	-3.16849534e-08	0	0;
	118	1	2.43611301	0.692499131	0	0	1	0.974487504	-0.544273235	115	2	1.1	0.9	1.13248663e-08	-1.60667636e-08	0	0;
	119	1	10.8512141	3.09151398	0	0	1	0.975026857	-2.1442747	115	2	1.1	0.9	6.20781805e-09	-4.80926554e-08	0	0;
	120	1	1.13581414	0.321814008	0	0	1	0.99424559	-3.63678062	115	4	1.1	0.9	-4.31523493e-08	-2.93590317e-07	0	0;
	121	1	0	0	0	0	1	1.00085778	-1.22823906	230	7	1.1	0.9	-3.2467002e-08	-3.31971176e-07	0	0;
	122	1	10.8846525	3.10184397	0	0	1	0.998059768	-1.85662085	115	7	1.1	0.9	-3.51247139e-08	-3.07170836e-07	0	0;
	123	1	0	0	0	0	1	0.97867782	1.09093359	230	2	1.1	0.9	3.44399428e-09	-3.63744049e-08	0	0;
	124	1	0	0	0	0	1	0.975246923	-0.137960767	115	2	1.1	0.9	8.27957182e-09	-2.08873307e-08	0	0;
	125	2	0	0	0	0	1	0.991468793	3.470995	13.8	2	1.1	0.9	-5.4689052e-09	-3.50321523e-08	0	0;
	126	2	0	0	0	0	1	0.986414724	2.61073517	13.8	2	1.1	0.9	-6.63836258e-09	-3.52628372e-08	0	0;
	127	2	0	0	0	0	1	0.982466224	1.82140757	13.8	2	1.1	0.9	-7.61439821e-09	-3.69122521e-08	0	0;
	128	1	0	0	0	0	1	0.983258096	-0.857163318	230	7	1.1	0.9	-1.75036691e-08	-1.94004991e-07	0	0;
	129	1	54.451461	15.5162695	0	0	1	0.973536041	-2.78759455	115	7	1.1	0.9	-1.96658781e-08	-1.70279385e-07	0	0;
	130	1	3.10184397	0.881205674	0	0	1	0.984072252	-1.41596798	115	7	1.1	0.9	-1.10671693e-08	-1.54472331e-07	0	0;
	131	1	18.7036596	5.3297701	0	0	1	0.970562955	-1.05419679	115	2	1.1	0.9	1.52976151e-08	-7.22975314e-09	0	0;
	132	1	16.6694434	4.74856547	0	0	1	0.969850368	-2.07800428	115	2	1.1	0.9	2.95185611e-09	-5.66120267e-08	0	0;
	133	1	0	0	0	0	1	0.978211986	1.30043646	230	2	1.1	0.9	7.50322861e-10	-4.93257499e-08	0	0;
	134	1	0	0	0	0	1	0.97958107	0.48420479	115	2	1.1	0.9	4.01753998e-09	-5.81424244e-08	0	0;
	135	2	0	0	0	0	1	0.972260221	4.0092074	13.8	2	1.1	0.9	1.71081412e-09	-4.51890033e-08	0	0;
	136	2	0	0	0	0	1	0.973448409	3.5193784	13.8	2	1.1	0.9	9.32424672e-10	-4.60128303e-08	0	0;
	137	1	0.731969115	0.208232593	0	0	1	1.013999	-3.94485632	115	4	1.1	0.9	-8.5939802e-08	-5.60975439e-07	0	0;
	138	1	1.2390207	0.355699722	0	0	1	0.991119181	-2.59355033	115	6	1.1	0.9	-2.45197801e-08	-2.09107915e-07	0	0;
	139	1	4.22919112	1.20569045	0	0	1	0.981923399	-2.61442111	115	2	1.1	0.9	-5.54838526e-09	-1.07558221e-07	0	0;
	140	1	5.07626595	1.44682854	0	0	1	0.974525345	-0.259816222	115	2	1.1	0.9	9.16715254e-09	-3.22518054e-08	0	0;
	141	1	0.87798997	0.253504146	0	0	1	0.970234	-1.14080958	115	2	1.1	0.9	1.62627809e-08	-5.00672874e-09	0	0;
	142	1	23.0379622	6.56637569	0	0	1	0.969130967	-1.13758	115	2	1.1	0.9	1.60778277e-08	-2.98914e-09	0	0;
	143	1	16.396344	4.67154984	0	0	1	1.00641646	-3.85095738	115	5	1.1	0.9	-6.06088175e-08	-3.68770981e-07	0	0;
	144	1	5.5956403	1.59522121	0	0	1	0.978050354	-1.47524525	115	2	1.1	0.9	7.89918657e-10	-7.97040951e-08	0	0;
	145	1	10.7420364	3.06215406	0	0	1	1.00953231	-4.29562368	115	3	1.1	0.9	-8.50961984e-08	-4.81940071e-07	0	0;
	146	1	0	0	0	0	1	0.983170714	-1.82585421	115	7	1.1	0.9	-1.41062513e-08	-1.43139521e-07	0	0;
	147	2	0	0	0	0	1	0.978614898	0.330610594	13.8	7	1.1	0.9	-2.24842924e-08	-1.32216867e-07	0	0;
	148	1	19.7980555	5.64510452	0	0	1	0.967048105	-1.6043411	115	2	1.1	0.9	2.00659742e-08	2.86574189e-09	0	0;
	149	1	0	0	0	0	1	1.0118471	-2.82462301	230	3	1.1	0.9	-6.80268735e-08	-4.74155775e-07	0	0;
	150	1	0	0	0	0	1	1.01369119	-3.54329918	115	3	1.1	0.9	-7.66595133e-08	-4.74381771e-07	0	0;
	151	2	0	0	0	0	1	1.01601682	-2.26776812	13.8	3	1.1	0.9	-9.41070989e-08	-5.26283434e-07	0	0;
	152	2	0	0	0	0	1	1.00420976	-0.965514746	13.8	3	1.1	0.9	-5.79343743e-08	-4.79756494e-07	0	0;
	153	2	0	0	0	0	1	1.0021491	-0.390162553	13.8	3	1.1	0.9	-4.83791906e-08	-4.81830613e-07	0	0;
	154	2	0	0	0	0	1	1.00658935	-1.47516467	13.8	3	1.1	0.9	-6.64801253e-08	-4.77690876e-07	0	0;
	155	2	0	0	0	0	1	1.00677577	-1.51589091	13.8	3	1.1	0.9	-6.71619259e-08	-4.77498401e-07	0	0;
	156	1	0	0	0	0	1	0.978460172	1.11033102	230	2	1.1	0.9	3.11983322e-09	-3.8102104e-08	0	0;
	157	1	9.12614926	2.60305477	0	0	1	0.978277792	0.607304533	115	2	1.1	0.9	4.93087931e-09	-1.5891211e-08	0	0;
	158	1	5.66014049	1.61538012	0	0	1	1.02496618	-3.10846604	115	4	1.1	0.9	-8.19874701e-08	-6.08858854e-07	0	0;
	159	1	0.877100923	0.252403143	0	0	1	1.00469971	-4.40005241	115	4	1.1	0.9	-7.39567455e-08	-4.47755289e-07	0	0;
	160	1	0	0	0	0	1	1.00760646	-4.39973545	115	4	1.1	0.9	-7.63554911e-08	-4.53973829e-07	0	0;
	161	1	0	0	0	0	1	1.00760646	-4.39973545	13.8	4	1.1	0.9	-7.6400046e-08	-4.56547374e-07	0	0;
	162	1	0.896539054	0.253504146	0	0	1	0.976593488	-1.33069494	115	2	1.1	0.9	3.38119316e-09	-6.08450224e-08	0	0;
	163	1	28.0415443	7.99000334	0	0	1	1.01838525	-4.58209392	115	5	1.1	0.9	-7.57908322e-08	-4.43085234e-07	0	0;
	164	1	0	0	0	0	1	1.01838525	-4.58209392	13.8	5	1.1	0.9	-7.64381918e-08	-4.51999347e-07	0	0;
	165	1	0	0	0	0	1	1.01838525	-4.58209392	13.8	5	1.1	0.9	-7.63745365e-08	-4.66879627e-07	0	0;
	166	1	0	0	0	0	1	1.01838525	-4.58209392	13.8	5	1.1	0.9	-7.70819231e-08	-4.73222916e-07	0	0;
	167	2	0	0	0	0	1	1.02062323	-4.28251884	13.8	5	1.1	0.9	-8.54097317e-08	-4.63719912e-07	0	0;
	168	1	0	0	0	0	1	1.01838525	-4.58209392	13.8	5	1.1	0.9	-7.72106536e-08	-4.81813467e-07	0	0;
	169	1	0	0	0	0	1	1.01838525	-4.58209392	13.8	5	1.1	0.9	-7.70819231e-08	-4.74354198e-07	0	0;
	170	2	0	0	0	0	1	1.02241552	-4.00923219	13.8	5	1.1	0.9	-8.68311564e-08	-4.82934982e-07	0	0;
	171	1	4.70709299	1.33980229	0	0	1	0.990831434	-3.04576301	115	6	1.1	0.9	-3.59560208e-08	-2.64418935e-07	0	0;
	172	1	3.29396306	0.936759012	0	0	1	1.01515237	-4.06578262	115	5	1.1	0.9	-7.35263589e-08	-4.53721735e-07	0	0;
	173	1	5.3327915	1.51840676	0	0	1	1.0181378	-4.56580253	115	5	1.1	0.9	-7.63892877e-08	-4.35090269e-07	0	0;
	174	1	1.69596239	0.483686026	0	0	1	1.01974592	-4.04396003	115	5	1.1	0.9	-6.83161457e-08	-4.1326531e-07	0	0;
	175	1	4.47562639	1.27350245	0	0	1	1.01771048	-4.69404028	115	5	1.1	0.9	-7.7896442e-08	-4.42208956e-07	0	0;
	176	1	11.6423097	3.319375	0	0	1	1.01060435	-4.09210588	115	3	1.1	0.9	-8.1118062e-08	-4.78642262e-07	0	0;
	177	1	7.95904965	2.26998582	0	0	1	0.982275546	-2.87138191	115	7	1.1	0.9	-1.72253166e-08	-1.54669662e-07	0	0;
	178	1	0	0	0	0	1	1.00656986	-2.66423754	230	5	1.1	0.9	-5.27060396e-08	-3.44258717e-07	0	0;
	179	1	14.4554773	4.12051513	0	0	1	1.01724361	-3.9202845	115	5	1.1	0.9	-6.41097896e-08	-4.08153692e-07	0	0;
	180	1	4.73889853	1.35309635	0	0	1	1.01745343	-4.18348765	115	5	1.1	0.9	-7.52771915e-08	-4.58716095e-07	0	0;
	181	1	30.275757	8.62587742	0	0	1	1.00892717	-4.28407453	115	4	1.1	0.9	-7.59392872e-08	-4.53202302e-07	0	0;
	182	2	0	0	0	0	1	1.01137172	-3.41049236	13.8	4	1.1	0.9	-7.45692642e-08	-4.67400149e-07	0	0;
	183	2	0	0	0	0	1	1.00936942	-3.77137232	13.8	4	1.1	0.9	-8.40989765e-08	-4.57823358e-07	0	0;
	184	1	6.54506787	1.86739542	0	0	1	1.02712331	-4.30445531	115	5	1.1	0.9	-8.42297829e-08	-5.08020499e-07	0	0;
	185	1	6.60812846	1.88016259	0	0	1	1.01079562	-4.1075356	115	3	1.1	0.9	-8.38148422e-08	-4.81176092e-07	0	0;
	186	1	1.29843587	0.370981677	0	0	1	0.983695732	-1.62148644	115	2	1.1	0.9	-1.1304452e-08	-1.34124621e-07	0	0;
	187	1	0	0	0	0	1	0.997813971	-0.776994951	230	7	1.1	0.9	-3.06571355e-08	-3.13716115e-07	0	0;
	188	1	0	0	0	0	1	1.00360361	-2.45434178	115	7	1.1	0.9	-4.29983483e-08	-3.23740657e-07	0	0;
	189	3	0	0	0	0	1	0.995084236	-1.25682633e-22	13.8	7	1.1	0.9	-2.49644854e-08	-3.14991294e-07	0	0;
	190	1	9.95366389	2.83374112	0	0	1	0.989516747	-3.28274203	115	6	1.1	0.9	-3.96022336e-08	-2.85091934e-07	0	0;
	191	1	4.42664553	1.26125723	0	0	1	1.02359515	-3.93128124	115	5	1.1	0.9	-8.48643028e-08	-5.40231244e-07	0	0;
	192	1	37.1798298	10.595617	0	0	1	0.971687138	-3.21958149	115	7	1.1	0.9	-1.63128082e-08	-1.49651664e-07	0	0;
	193	1	13.5964785	3.87675853	0	0	1	0.970925802	-1.02330756	115	2	1.1	0.9	1.45839304e-08	-7.66080212e-09	0	0;
	194	1	23.0090256	6.55913399	0	50	1	1.01537535	-4.00145689	115	3	1.1	0.9	-7.79353666e-08	-4.7209438e-07	0	0;
	195	1	0	0	0	0	1	0.993104452	-2.53997254	115	6	1.1	0.9	-3.08447123e-08	-2.42145047e-07	0	0;
	196	1	0	0	0	0	1	0.993104452	-2.53997254	13.8	6	1.1	0.9	-3.07607742e-08	-2.40376811e-07	0	0;
	197	1	0	0	0	0	1	0.993104452	-2.53997254	13.8	6	1.1	0.9	-3.07607742e-08	-2.3650547e-07	0	0;
	198	1	3.32028601	0.946003277	0	0	1	0.975572084	-0.561365824	115	2	1.1	0.9	1.31324237e-08	-1.58463326e-09	0	0;
	199	1	2.52546803	0.717327773	0	0	1	1.01038214	-3.58575254	115	6	1.1	0.9	-6.47494986e-08	-4.34975447e-07	0	0;
	200	1	5.8936134	1.6784809	0	0	1	0.991197798	-2.71601519	115	4	1.1	0.9	-3.01930401e-08	-2.45249719e-07	0	0;
];

%% generator data
%	bus	Pg	Qg	Qmax	Qmin	Vg	mBase	status	Pmax	Pmin	Pc1	Pc2	Qc1min	Qc1max	Qc2min	Qc2max	ramp_agc	ramp_10	ramp_30	ramp_q	apf	pgs
mpc.gen = [
	49	1.35999911	0.645967706	2.11	-0.55	0.996974358	5.44	1	4.53	1.36	0	0	0	0	0	0	3	30	90	0	0.00151126442	1.36;
	50	1.35999911	0.645670788	2.11	-0.55	0.996083973	5.44	1	4.53	1.36	0	0	0	0	0	0	3	30	90	0	0.00151126442	1.36;
	51	1.35999911	0.644902963	2.11	-0.55	0.997480004	5.44	1	4.53	1.36	0	0	0	0	0	0	3	30	90	0	0.00151126442	1.36;
	52	1.35999911	0.644517113	2.11	-0.55	0.995923917	5.44	1	4.53	1.36	0	0	0	0	0	0	3	30	90	0	0.00151126442	1.36;
	53	2.71999911	1.02841504	4.23	-1.11	0.999570668	10.88	1	9.07	2.72	0	0	0	0	0	0	3	30	90	0	0.00302586497	2.72;
	65	32.9380024	-16.5939847	32.04	-21.66	0.976690748	180.48	1	86.5	0	0	0	0	0	0	0	45	450	1350	0	0.0288574774	86.5;
	67	1.40999911	0.534960758	2.19	-0.57	1.02497505	5.64	1	4.7	1.41	0	0	0	0	0	0	3	30	90	0	0.00156797854	1.41;
	68	8.37999911	-0.756875589	13.01	-3.41	1.02230422	33.5	1	27.92	8.38	0	0	0	0	0	0	3	30	90	0	0.00931445976	8.38;
	69	8.37999911	-0.698054349	13.01	-3.41	1.02361638	33.5	1	27.92	8.38	0	0	0	0	0	0	3	30	90	0	0.00931445976	8.38;
	70	8.37999911	-0.735184184	13.01	-3.41	1.02293272	33.5	1	27.92	8.38	0	0	0	0	0	0	3	30	90	0	0.00931445976	8.38;
	71	8.37999911	-0.692715948	13.01	-3.41	1.02364797	33.5	1	27.92	8.38	0	0	0	0	0	0	3	30	90	0	0.00931445976	8.38;
	72	8.37999911	-0.690163186	13.01	-3.41	1.02370041	33.5	1	27.92	8.38	0	0	0	0	0	0	3	30	90	0	0.00931445976	8.38;
	73	8.37999911	-0.716120227	13.01	-3.41	1.02340172	33.5	1	27.92	8.38	0	0	0	0	0	0	3	30	90	0	0.00931445976	8.38;
	76	1.19999909	0.820047449	2.04	-0.44	0.985532435	4.8	1	4	1.2	0	0	0	0	0	0	35	350	1050	0	0.00133444982	1.2;
	77	0.719999091	0.480351653	1.22	-0.27	0.989680207	2.88	1	2.4	0.72	0	0	0	0	0	0	35	350	1050	0	0.000800669894	0.72;
	78	0	0	9.16	-2	0.97858134	21.6	0	18	5.4	0	0	0	0	0	0	35	350	1050	0	0	11.7;
	79	0	0	9.16	-2	0.97858134	21.6	0	18	5.4	0	0	0	0	0	0	35	350	1050	0	0	11.7;
	90	0.959999091	0.528759914	1.63	-0.36	1.01208705	3.84	1	3.2	0.96	0	0	0	0	0	0	35	350	1050	0	0.00106755986	0.96;
	91	1.49999909	0.829188519	2.55	-0.55	1.00432999	6	1	5	1.5	0	0	0	0	0	0	35	350	1050	0	0.00166806228	1.5;
	92	0	0	3.21	-0.7	0.999832801	7.56	0	6.3	1.89	0	0	0	0	0	0	35	350	1050	0	0	4.095;
	94	5.39999911	0.201342029	8.39	-2.2	1.02799852	21.6	1	18	5.4	0	0	0	0	0	0	3	30	90	0	0.0060050242	5.4;
	104	27.5910595	-6.92481441	21.09	-14.26	0.98074209	118.8	1	67.6	0	0	0	0	0	0	0	45	450	1350	0	0.022552202	67.6;
	105	61.4498559	-20.097077	42.17	-28.51	0.974295317	237.6	1	154.8	0	0	0	0	0	0	0	45	450	1350	0	0.0516432082	154.8;
	114	0.696982721	0.0565158068	0.36	-0.24	0.983349768	2.04	1	1.4	0	0	0	0	0	0	0	45	450	1350	0	0.000467057438	1.4;
	115	51.3031712	-12.6116706	31.95	-21.6	0.974670108	180	1	133.5	0	0	0	0	0	0	0	45	450	1350	0	0.0445372628	133.5;
	125	39.0199991	11.2572596	60.6	-15.87	0.991468793	156.06	1	130.05	39.02	0	0	0	0	0	0	3	30	90	0	0.0433862999	39.02;
	126	39.0199991	11.1955901	60.6	-15.87	0.986414724	156.06	1	130.05	39.02	0	0	0	0	0	0	3	30	90	0	0.0433862999	39.02;
	127	39.0199991	10.7599022	60.6	-15.87	0.982466224	156.06	1	130.05	39.02	0	0	0	0	0	0	3	30	90	0	0.0433862999	39.02;
	135	133.919999	-15.8147455	208.02	-54.46	0.972260221	535.68	1	446.4	133.92	0	0	0	0	0	0	3	30	90	0	0.1489246	133.92;
	136	133.919999	-16.3728646	208.02	-54.46	0.973448409	535.68	1	446.4	133.92	0	0	0	0	0	0	3	30	90	0	0.1489246	133.92;
	147	35.4480009	-4.58029107	21.41	-14.47	0.978614898	120.6	1	92.4	0	0	0	0	0	0	0	45	450	1350	0	0.0308257909	92.4;
	151	1.61999911	0.626326611	2.52	-0.66	1.01601682	6.48	1	5.4	1.62	0	0	0	0	0	0	3	30	90	0	0.00180150726	1.62;
	152	23.1699991	-5.44268592	35.99	-9.42	1.00420976	92.67	1	77.22	23.17	0	0	0	0	0	0	3	30	90	0	0.0257615538	23.17;
	153	23.1699991	-5.45802959	35.99	-9.42	1.0021491	92.67	1	77.22	23.17	0	0	0	0	0	0	3	30	90	0	0.0257615538	23.17;
	154	23.1699991	-5.42728777	35.99	-9.42	1.00658935	92.67	1	77.22	23.17	0	0	0	0	0	0	3	30	90	0	0.0257615538	23.17;
	155	23.1699991	-5.42584695	35.99	-9.42	1.00677577	92.67	1	77.22	23.17	0	0	0	0	0	0	3	30	90	0	0.0257615538	23.17;
	161	0	0	70.55	-15.38	1.00760646	166.32	0	138.6	41.58	0	0	0	0	0	0	35	350	1050	0	0	90.09;
	164	0	0	6.11	-1.33	1.01838525	14.4	0	12	3.6	0	0	0	0	0	0	35	350	1050	0	0	7.8;
	165	0	0	13.23	-2.89	1.01838525	31.2	0	26	7.8	0	0	0	0	0	0	35	350	1050	0	0	16.9;
	166	0	0	4.78	-1.04	1.01838525	11.28	0	9.4	2.82	0	0	0	0	0	0	35	350	1050	0	0	6.11;
	167	2.81999909	1.01930323	4.78	-1.04	1.02062323	11.28	1	9.4	2.82	0	0	0	0	0	0	35	350	1050	0	0.00313595708	2.82;
	168	0	0	4.78	-1.04	1.01838525	11.28	0	9.4	2.82	0	0	0	0	0	0	35	350	1050	0	0	6.11;
	169	0	0	4.78	-1.04	1.01838525	11.28	0	9.4	2.82	0	0	0	0	0	0	35	350	1050	0	0	6.11;
	170	2.81999909	0.989879134	4.78	-1.04	1.02241552	11.28	1	9.4	2.82	0	0	0	0	0	0	35	350	1050	0	0.00313595708	2.82;
	182	5.24999911	0.676408143	8.16	-2.14	1.01137172	21	1	17.5	5.25	0	0	0	0	0	0	3	30	90	0	0.00583821798	5.25;
	183	7.97999911	0.103213266	12.4	-3.25	1.00936942	31.92	1	26.6	7.98	0	0	0	0	0	0	3	30	90	0	0.00887409132	7.98;
	189	170.749999	-40.1441774	209.45	-46.67	0.995084236	682.98	1	569.15	170.75	0	0	0	0	0	0	20	200	600	0	0.189875529	384.37;
	196	0	0	34.36	-7.49	0.993104452	81	0	67.5	20.25	0	0	0	0	0	0	35	350	1050	0	0	43.875;
	197	0	0	34.36	-7.49	0.993104452	81	0	67.5	20.25	0	0	0	0	0	0	35	350	1050	0	0	43.875;
];

%% branch data
%	fbus	tbus	r	x	b	rateA	rateB	rateC	ratio	angle	status	angmin	angmax	Pf	Qf	Pt	Qt
mpc.branch = [
	1	2	0.000673	0.003339	0	100	0	0	1	0	1	0	0	4.5694	1.2992	-4.5693	-1.2984;
	1	119	0.018542	0.119758	0.02285	221.1	0	0	1	0	1	0	0	17.2026	-5.2405	-17.1412	3.4692;
	1	124	0.005615	0.036268	0.00692	221.1	0	0	1	0	1	0	0	-32.8041	-1.2377	32.8680	0.9937;
	1	193	0.004258	0.027501	0.00525	221.1	0	0	1	0	1	0	0	11.0321	5.1790	-11.0253	-5.6310;
	3	4	0.000573	0.003303	0	100	0	0	1	0	1	0	0	1.0727	0.3029	-1.0727	-0.3029;
	3	57	0.008505	0.058098	0.00988	221.1	0	0	1	0	1	0	0	6.6452	4.9373	-6.6390	-5.9030;
	3	137	0.005889	0.038035	0.00726	221.1	0	0	1	0	1	0	0	-7.7179	-5.2402	7.7227	4.5264;
	5	6	0.000694	0.003337	0	100	0	0	1	0	1	0	0	4.7132	1.3406	-4.7130	-1.3398;
	5	48	0.006246	0.043513	0.00711	221.1	0	0	1	0	1	0	0	7.8571	-1.2393	-7.8531	0.5654;
	5	64	0.007877	0.054875	0.00897	221.1	0	0	1	0	1	0	0	-12.5703	-0.1014	12.5829	-0.6964;
	7	8	0.000634	0.003189	0	100	0	0	1	0	1	0	0	14.6801	4.1938	-14.6785	-4.1859;
	7	86	0.003756	0.024259	0.00463	221.1	0	0	1	0	1	0	0	-9.4197	-1.5069	9.4233	1.0954;
	7	101	0.003597	0.023232	0.00443	221.1	0	0	1	0	1	0	0	-13.1008	-4.0007	13.1079	3.6303;
	7	148	0.008667	0.05598	0.01068	221.1	0	0	1	0	1	0	0	7.8404	1.3137	-7.8344	-2.2757;
	9	10	0.000585	0.003967	0	100	0	0	1	0	1	0	0	26.3938	7.5503	-26.3892	-7.5186;
	9	124	0.008069	0.055123	0.00938	221.1	0	0	1	0	1	0	0	-28.1480	-4.6198	28.2174	4.2061;
	9	131	0.004139	0.026732	0.0051	221.1	0	0	1	0	1	0	0	-0.2509	-0.7652	0.2510	0.2849;
	9	141	0.004446	0.03097	0.00506	221.1	0	0	1	0	1	0	0	4.4364	-0.3279	-4.4355	-0.1420;
	9	193	0.003695	0.025244	0.00429	221.1	0	0	1	0	1	0	0	-2.4313	-1.8375	2.4316	1.4356;
	11	12	0.000534	0.003533	0	100	0	0	1	0	1	0	0	0.1893	0.0568	-0.1893	-0.0568;
	11	13	0.000619	0.003606	0	100	0	0	1	0	1	0	0	1.5902	0.4544	-1.5901	-0.4543;
	11	15	0.010408	0.06722	0.01282	221.1	0	0	1	0	1	0	0	-3.3299	3.5214	3.3327	-4.8461;
	11	93	0.018394	0.128141	0.02095	221.1	0	0	1	0	1	0	0	2.9005	-3.3122	-2.8982	1.1237;
	11	158	0.008519	0.058199	0.0099	221.1	0	0	1	0	1	0	0	-1.3500	-0.7204	1.3502	-0.3184;
	14	15	0.000637	0.027526	0	300	0	0	1	0	1	0	0	31.5921	-27.6518	-31.5812	28.1227;
	14	121	0.007013	0.050098	0.09134	402.36	0	0	1	0	1	0	0	-40.6313	30.1291	40.8263	-38.0160;
	14	149	0.009133	0.065244	0.11895	402.36	0	0	1	0	1	0	0	9.0392	-2.4773	-9.0308	-9.6789;
	15	16	0.000553	0.0032	0	100	0	0	1	0	1	0	0	28.2485	8.0781	-28.2439	-8.0517;
	17	18	0.000503	0.003926	0	100	0	0	1	0	1	0	0	0.4480	0.1262	-0.4480	-0.1262;
	17	19	0.000514	0.003079	0	100	0	0	1	0	1	0	0	0.4859	0.1388	-0.4859	-0.1388;
	17	20	0.000623	0.003339	0	100	0	0	1	0	1	0	0	0.7130	0.2019	-0.7130	-0.2019;
	17	21	0.00062	0.00394	0	100	0	0	1	0	1	0	0	2.9090	0.8270	-2.9089	-0.8266;
	17	109	0.009789	0.068198	0.01115	221.1	0	0	1	0	1	0	0	-16.7986	7.0971	16.8327	-7.9488;
	17	120	0.010316	0.070473	0.01199	221.1	0	0	1	0	1	0	0	12.2427	-8.3911	-12.2205	7.3625;
	22	23	0.000616	0.003222	0	100	0	0	1	0	1	0	0	0.8897	0.2524	-0.8897	-0.2524;
	22	24	0.000687	0.003067	0	100	0	0	1	0	1	0	0	1.5144	0.4292	-1.5144	-0.4291;
	22	27	0.011379	0.073494	0.01402	221.1	0	0	1	0	1	0	0	0.4068	-1.9336	-0.4066	0.4567;
	22	158	0.012701	0.086769	0.01476	221.1	0	0	1	0	1	0	0	-2.8110	1.2520	2.8124	-2.7948;
	25	26	0.00061	0.003071	0	100	0	0	1	0	1	0	0	0.8003	0.2312	-0.8003	-0.2312;
	25	64	0.007643	0.053244	0.0087	221.1	0	0	1	0	1	0	0	-20.2827	16.8566	20.3368	-17.3459;
	25	199	0.009909	0.064003	0.01221	221.1	0	0	1	0	1	0	0	19.4824	-17.0878	-19.4181	16.2672;
	27	28	0.000587	0.003964	0	100	0	0	1	0	1	0	0	1.4703	0.4229	-1.4702	-0.4228;
	27	93	0.025172	0.175362	0.02867	221.1	0	0	1	0	1	0	0	0.9989	-1.5682	-0.9987	-1.4545;
	27	158	0.020429	0.131945	0.02517	221.1	0	0	1	0	1	0	0	-2.0625	0.6885	2.0642	-3.3280;
	29	30	0.000694	0.003131	0	100	0	0	1	0	1	0	0	36.5461	10.4602	-36.5355	-10.4122;
	29	124	0.005561	0.038742	0.00633	221.1	0	0	1	0	1	0	0	-23.6566	-6.4241	23.6918	6.0695;
	29	140	0.007895	0.055004	0.00899	221.1	0	0	1	0	1	0	0	-12.8895	-4.0361	12.9045	3.2895;
	31	32	0.000667	0.003884	0	100	0	0	1	0	1	0	0	0.3595	0.1058	-0.3595	-0.1057;
	31	33	0.000528	0.003639	0	100	0	0	1	0	1	0	0	4.5401	1.2980	-4.5400	-1.2971;
	31	177	0.008406	0.05856	0.00957	221.1	0	0	1	0	1	0	0	-8.6700	-8.8673	8.6828	8.0390;
	31	192	0.008088	0.05525	0.0094	221.1	0	0	1	0	1	0	0	3.7704	7.4635	-3.7638	-8.3109;
	34	35	0.000575	0.003674	0	100	0	0	1	0	1	0	0	13.1008	3.7422	-13.0997	-3.7356;
	34	54	0.006268	0.042819	0.00729	221.1	0	0	1	0	1	0	0	-21.5614	-7.6377	21.5928	7.0957;
	34	137	0.006911	0.044639	0.00852	221.1	0	0	1	0	1	0	0	8.4607	3.8955	-8.4546	-4.7346;
	36	37	0.000552	0.003328	0	100	0	0	1	0	1	0	0	2.5168	0.7193	-2.5167	-0.7191;
	36	38	0.00067	0.003511	0	100	0	0	1	0	1	0	0	21.0183	6.0095	-21.0150	-5.9922;
	36	58	0.010889	0.07439	0.01266	221.1	0	0	1	0	1	0	0	1.8080	-11.3352	-1.7947	10.1889;
	36	83	0.009615	0.066986	0.01095	221.1	0	0	1	0	1	0	0	-25.3431	4.6064	25.4094	-5.2047;
	39	40	0.000505	0.003103	0	100	0	0	1	0	1	0	0	1.2873	0.3660	-1.2873	-0.3660;
	39	85	0.008702	0.060625	0.00991	221.1	0	0	1	0	1	0	0	-8.0130	6.7755	8.0232	-7.6934;
	39	159	0.007332	0.05108	0.00835	221.1	0	0	1	0	1	0	0	2.0500	-8.4730	-2.0449	7.6687;
	41	100	0.004595	0.029676	0.00566	221.1	0	0	1	0	1	0	0	-10.6635	-27.4962	10.7011	27.1440;
	41	163	0.003165	0.021623	0.00368	221.1	0	0	1	0	1	0	0	-1.0907	13.2520	1.0962	-13.5970;
	41	180	0.009408	0.060766	0.01159	221.1	0	0	1	0	1	0	0	-11.7200	7.5522	11.7384	-8.6376;
	42	44	0.012256	0.085383	0.01396	221.1	0	0	1	0	1	0	0	-10.4138	7.6875	10.4356	-8.9355;
	42	181	0.008008	0.05579	0.00912	221.1	0	0	1	0	1	0	0	3.7125	-9.5994	-3.7048	8.7293;
	43	84	0.007509	0.051295	0.00873	221.1	0	0	1	0	1	0	0	4.4031	-3.5930	-4.4007	2.7828;
	43	132	0.011052	0.075503	0.01285	221.1	0	0	1	0	1	0	0	-5.6953	3.2282	5.7008	-4.4021;
	44	200	0.014813	0.101195	0.01722	221.1	0	0	1	0	1	0	0	-13.0543	8.1909	13.0918	-9.6388;
	45	46	0.000936	0.049195	0	160	0	0	1	0	1	0	0	18.4452	-3.1588	-18.4419	3.3344;
	45	55	0.002593	0.018527	0.03378	402.36	0	0	1	0	1	0	0	4.5357	13.3070	-4.5293	-16.5664;
	45	102	0.0029	0.020715	0.03777	402.36	0	0	1	0	1	0	0	-13.5599	19.2584	13.5785	-22.8174;
	45	187	0.003474	0.024821	0.04525	402.36	0	0	1	0	1	0	0	-9.4211	-29.4066	9.4504	25.1429;
	46	61	0.006971	0.048561	0.00794	221.1	0	0	1	0	1	0	0	3.2528	6.6391	-3.2485	-7.3881;
	46	122	0.010129	0.065419	0.01248	221.1	0	0	1	0	1	0	0	10.7196	-11.2494	-10.6962	10.1652;
	47	54	0.006678	0.045623	0.00776	221.1	0	0	1	0	1	0	0	7.3177	2.0554	-7.3139	-2.8394;
	47	66	0.007339	0.047401	0.00904	221.1	0	0	1	0	1	0	0	-8.2895	-2.3330	8.2945	1.4193;
	48	49	0.027149	0.532021	0	28.9	0	0	1	0	1	0	0	-1.3594	-0.6338	1.3600	0.6460;
	48	50	0.021719	0.404167	0	28.7	0	0	1	0	1	0	0	-1.3595	-0.6364	1.3600	0.6457;
	48	51	0.027149	0.612711	0	24.3	0	0	1	0	1	0	0	-1.3594	-0.6310	1.3600	0.6449;
	48	52	0.021719	0.379817	0	24.3	0	0	1	0	1	0	0	-1.3595	-0.6358	1.3600	0.6445;
	48	53	0.02121	0.576549	0	35.3	0	0	1	0	1	0	0	-2.7182	-0.9796	2.7200	1.0284;
	48	74	0.007959	0.054369	0.00925	221.1	0	0	1	0	1	0	0	14.9301	2.6430	-14.9114	-3.4246;
	54	66	0.007051	0.045544	0.00869	221.1	0	0	1	0	1	0	0	-15.9574	-4.7358	15.9759	3.9467;
	55	56	0.005152	0.124653	0	160	0	0	1	0	1	0	0	2.9708	-0.0005	-2.9704	0.0118;
	55	81	0.005467	0.039054	0.0712	402.36	0	0	1	0	1	0	0	41.7944	-30.7294	-41.6548	24.7183;
	55	102	0.001246	0.008902	0.01623	402.36	0	0	1	0	1	0	0	-40.8664	17.1564	40.8919	-18.5564;
	55	112	0.004166	0.029763	0.05426	402.36	0	0	1	0	1	0	0	-0.0212	14.1968	0.0334	-19.3770;
	55	128	0.003415	0.024395	0.04448	402.36	0	0	1	0	1	0	0	0.6518	15.9431	-0.6403	-20.1810;
	56	103	0.004282	0.02983	0.00488	221.1	0	0	1	0	1	0	0	2.0469	-0.2726	-2.0467	-0.2020;
	57	159	0.00752	0.051369	0.00874	221.1	0	0	1	0	1	0	0	4.8596	5.3982	-4.8553	-6.2542;
	58	95	0.009836	0.063526	0.01212	221.1	0	0	1	0	1	0	0	4.6788	-21.6126	-4.6325	20.7022;
	58	177	0.014049	0.095972	0.01633	221.1	0	0	1	0	1	0	0	-5.8661	10.5707	5.8894	-12.0030;
	59	119	0.011209	0.072397	0.01381	221.1	0	0	1	0	1	0	0	-6.2812	5.2995	6.2900	-6.5607;
	59	139	0.009665	0.062426	0.01191	221.1	0	0	1	0	1	0	0	3.3567	-6.1342	-3.3524	5.0172;
	60	97	0.012274	0.079279	0.01512	221.1	0	0	1	0	1	0	0	23.6557	-8.8290	-23.5762	7.8770;
	60	134	0.009007	0.062749	0.01026	221.1	0	0	1	0	1	0	0	-26.0052	8.1613	26.0753	-8.6606;
	61	103	0.006539	0.045556	0.00745	221.1	0	0	1	0	1	0	0	-11.2385	3.2570	11.2478	-3.9192;
	62	159	0.008634	0.058979	0.01003	221.1	0	0	1	0	1	0	0	-6.0199	0.6762	6.0231	-1.6669;
	62	160	0.007628	0.053144	0.00869	221.1	0	0	1	0	1	0	0	-7.4900	-4.5254	7.4955	3.6838;
	63	66	0.011949	0.083244	0.01361	221.1	0	0	1	0	1	0	0	-15.4737	3.0587	15.5025	-4.2863;
	63	184	0.017963	0.116023	0.02214	221.1	0	0	1	0	1	0	0	10.4382	-4.4911	-10.4177	2.2925;
	64	65	0.00128	0.10157	0	195.5	0	0	1	0	1	0	0	-32.9197	18.0423	32.9380	-16.5940;
	66	67	0.020951	0.144786	0	30	0	0	1	0	1	0	0	-1.4095	-0.5318	1.4100	0.5350;
	66	68	0.00689	0.264997	0	73	0	0	1	0	1	0	0	-8.3753	0.9364	8.3800	-0.7569;
	66	69	0.00441	0.09499	0	70.5	0	0	1	0	1	0	0	-8.3770	0.7622	8.3800	-0.6981;
	66	70	0.00689	0.199449	0	70.5	0	0	1	0	1	0	0	-8.3753	0.8701	8.3800	-0.7352;
	66	71	0.003528	0.081544	0	68	0	0	1	0	1	0	0	-8.3776	0.7477	8.3800	-0.6927;
	66	72	0.003528	0.074599	0	68	0	0	1	0	1	0	0	-8.3776	0.7405	8.3800	-0.6902;
	66	73	0.00689	0.146423	0	65	0	0	1	0	1	0	0	-8.3753	0.8150	8.3800	-0.7161;
	66	158	0.004993	0.032251	0.00615	221.1	0	0	1	0	1	0	0	11.8949	-5.4198	-11.8869	4.8259;
	74	190	0.008894	0.06076	0.01034	221.1	0	0	1	0	1	0	0	3.7898	0.2530	-3.7885	-1.2570;
	75	76	0.038464	0.784328	0	24.3	0	0	1	0	1	0	0	-1.1992	-0.8030	1.2000	0.8200;
	75	77	0.08013	2.192105	0	7.4	0	0	1	0	1	0	0	-0.7194	-0.4636	0.7200	0.4804;
	75	78	0.008544	0.181406	0	65	0	0	1	0	1	0	0	0.0000	0.0000	0.0000	0.0000;
	75	79	0.01068	0.277774	0	62.1	0	0	1	0	1	0	0	0.0000	0.0000	0.0000	0.0000;
	75	108	0.010988	0.070969	0.01354	221.1	0	0	1	0	1	0	0	8.9621	-0.3921	-8.9529	-0.8434;
	75	157	0.013487	0.087112	0.01662	221.1	0	0	1	0	1	0	0	-9.2695	1.0218	9.2820	-2.5318;
	80	100	0.021463	0.149525	0.02444	221.1	0	0	1	0	1	0	0	2.4325	-8.6528	-2.4200	6.1749;
	80	143	0.020594	0.14347	0.02345	221.1	0	0	1	0	1	0	0	-3.3386	8.3956	3.3592	-10.6583;
	81	82	0.00097	0.042371	0	250	0	0	1	0	1	0	0	17.5296	4.2839	-17.5264	-4.1449;
	81	178	0.006598	0.047137	0.08594	402.36	0	0	1	0	1	0	0	24.1252	-29.0023	-24.0459	20.9495;
	82	195	0.003845	0.026265	0.00447	221.1	0	0	1	0	1	0	0	13.0209	2.8585	-13.0140	-3.2524;
	83	146	0.005382	0.036767	0.00626	221.1	0	0	1	0	1	0	0	-12.8148	2.8982	12.8245	-3.4373;
	83	186	0.00792	0.055174	0.00902	221.1	0	0	1	0	1	0	0	-14.8082	1.6791	14.8265	-2.4243;
	84	113	0.006652	0.04544	0.00773	221.1	0	0	1	0	1	0	0	2.0821	-3.4444	-2.0811	2.7175;
	85	120	0.007786	0.050291	0.00959	221.1	0	0	1	0	1	0	0	-11.0709	6.8227	11.0847	-7.6844;
	86	101	0.00512	0.033072	0.00631	221.1	0	0	1	0	1	0	0	-2.2908	-2.0216	2.2913	1.4310;
	86	142	0.003387	0.023141	0.00394	221.1	0	0	1	0	1	0	0	-4.7517	1.9727	4.7527	-2.3362;
	86	193	0.006606	0.042664	0.00814	221.1	0	0	1	0	1	0	0	-7.4818	-2.4995	7.4861	1.7607;
	87	88	0.000832	0.034189	0	350	0	0	1	0	1	0	0	39.9083	-2.3544	-39.8953	2.8883;
	87	149	0.001621	0.011579	0.02111	402.36	0	0	1	0	1	0	0	-39.9083	2.3544	39.9337	-4.3336;
	88	150	0.00557	0.035973	0.00686	221.1	0	0	1	0	1	0	0	-15.6113	-2.2356	15.6248	1.6186;
	88	176	0.003859	0.024922	0.00475	221.1	0	0	1	0	1	0	0	17.8168	3.3024	-17.8044	-3.7080;
	88	194	0.004258	0.029088	0.00495	221.1	0	0	1	0	1	0	0	7.4724	-12.5659	-7.4638	12.1161;
	89	90	0.0601	2.279922	0	8.6	0	0	1	0	1	0	0	-0.9593	-0.5020	0.9600	0.5288;
	89	91	0.024614	0.503424	0	32	0	0	1	0	1	0	0	-1.4993	-0.8145	1.5000	0.8292;
	89	92	0.019539	0.36204	0	35.3	0	0	1	0	1	0	0	0.0000	0.0000	0.0000	0.0000;
	89	95	0.008734	0.056409	0.01076	221.1	0	0	1	0	1	0	0	-2.5091	-10.0517	2.5176	9.0247;
	89	188	0.00805	0.051996	0.00992	221.1	0	0	1	0	1	0	0	-39.3393	-1.2576	39.4640	1.0675;
	93	94	0.01068	0.280602	0	62.1	0	0	1	0	1	0	0	-5.3970	-0.1238	5.4000	0.2013;
	93	191	0.022088	0.142662	0.02722	221.1	0	0	1	0	1	0	0	7.3630	-0.0944	-7.3513	-2.6913;
	96	122	0.01062	0.073986	0.01209	221.1	0	0	1	0	1	0	0	-17.2063	8.2140	17.2458	-9.1487;
	96	143	0.015858	0.102423	0.01954	221.1	0	0	1	0	1	0	0	19.8242	-7.5146	-19.7555	5.9867;
	96	188	0.010903	0.070421	0.01343	221.1	0	0	1	0	1	0	0	-4.7047	-1.2916	4.7071	-0.0441;
	97	200	0.01318	0.085125	0.01624	221.1	0	0	1	0	1	0	0	19.0440	-9.1693	-18.9854	7.9603;
	98	99	0.000643	0.030516	0	250	0	0	1	0	1	0	0	35.3879	6.4172	-35.3791	-6.0026;
	98	123	0.0047	0.033574	0.06121	402.36	0	0	1	0	1	0	0	-35.3879	-6.4172	35.4503	1.0183;
	99	142	0.007605	0.052982	0.00866	221.1	0	0	1	0	1	0	0	27.8544	3.8571	-27.7907	-4.2302;
	100	174	0.010698	0.074531	0.01218	221.1	0	0	1	0	1	0	0	-9.4098	14.3431	9.4414	-15.4017;
	100	179	0.007093	0.049413	0.00808	221.1	0	0	1	0	1	0	0	-17.8943	27.9671	17.9696	-28.2883;
	100	184	0.012745	0.08879	0.01451	221.1	0	0	1	0	1	0	0	-3.8694	2.6477	3.8726	-4.1599;
	101	110	0.00196	0.012657	0.00241	221.1	0	0	1	0	1	0	0	-2.7001	-0.0558	2.7003	-0.1701;
	101	117	0.005245	0.035833	0.0061	221.1	0	0	1	0	1	0	0	-10.8141	-5.0431	10.8219	4.5207;
	101	141	0.003144	0.020305	0.00387	221.1	0	0	1	0	1	0	0	-2.2064	-0.0551	2.2066	-0.3081;
	102	103	0.001709	0.054578	0	250	0	0	1	0	1	0	0	14.9093	-1.9752	-14.9053	2.1020;
	102	104	0.0021	0.087749	0	130	0	0	1	0	1	0	0	-27.5734	7.6631	27.5911	-6.9248;
	102	105	0.00097	0.059419	0	260	0	0	1	0	1	0	0	-61.4071	22.7136	61.4499	-20.0971;
	102	128	0.0027	0.019292	0.03517	402.36	0	0	1	0	1	0	0	19.6009	12.9723	-19.5843	-16.2654;
	103	106	0.007749	0.053987	0.00883	221.1	0	0	1	0	1	0	0	5.7042	2.0193	-5.7011	-2.8575;
	106	130	0.006991	0.047761	0.00813	221.1	0	0	1	0	1	0	0	4.2489	2.4416	-4.2470	-3.2174;
	107	113	0.006748	0.046101	0.00784	221.1	0	0	1	0	1	0	0	-21.5571	-4.5502	21.5916	4.0435;
	107	129	0.005168	0.035307	0.00601	221.1	0	0	1	0	1	0	0	-18.3868	-3.7564	18.4060	3.3191;
	107	192	0.003939	0.025441	0.00485	221.1	0	0	1	0	1	0	0	2.8910	-2.2538	-2.8904	1.7995;
	108	198	0.024792	0.160126	0.03055	221.1	0	0	1	0	1	0	0	3.1285	-0.8137	-3.1258	-2.0823;
	109	186	0.008774	0.059942	0.0102	221.1	0	0	1	0	1	0	0	-20.0887	7.0212	20.1302	-7.7275;
	110	193	0.003444	0.022243	0.00424	221.1	0	0	1	0	1	0	0	-9.4150	-1.7405	9.4184	1.3626;
	111	163	0.005281	0.034111	0.00651	221.1	0	0	1	0	1	0	0	-5.6668	-1.1969	5.6685	0.5329;
	111	175	0.00795	0.055386	0.00905	221.1	0	0	1	0	1	0	0	0.2667	-0.3399	-0.2667	-0.5975;
	112	113	0.002077	0.058615	0	350	0	0	1	0	1	0	0	50.1476	12.1795	-50.0903	-10.5630;
	112	114	0.06	0.434013	0	20	0	0	1	0	1	0	0	-0.6967	-0.0543	0.6970	0.0565;
	112	115	0.00128	0.062771	0	200	0	0	1	0	1	0	0	-51.2656	14.4559	51.3032	-12.6117;
	112	128	0.001295	0.009255	0.01687	402.36	0	0	1	0	1	0	0	1.7813	-7.2040	-1.7807	5.5782;
	113	192	0.005418	0.034995	0.00668	221.1	0	0	1	0	1	0	0	30.5798	3.8020	-30.5255	-4.0841;
	116	117	0.000517	0.034943	0	300	0	0	1	0	1	0	0	59.7082	5.8269	-59.6886	-4.5032;
	116	133	0.00389	0.027793	0.05067	402.36	0	0	1	0	1	0	0	-59.7082	-5.8269	59.8546	2.0420;
	117	132	0.011912	0.082984	0.01357	221.1	0	0	1	0	1	0	0	22.4336	-0.4920	-22.3703	-0.3464;
	117	162	0.01617	0.104442	0.01993	221.1	0	0	1	0	1	0	0	5.3612	-5.5292	-5.3527	3.6913;
	118	131	0.00718	0.046377	0.00885	221.1	0	0	1	0	1	0	0	18.9841	4.9679	-18.9546	-5.6147;
	118	134	0.011598	0.0808	0.01321	221.1	0	0	1	0	1	0	0	-21.6149	-3.4774	21.6729	2.6208;
	118	198	0.009487	0.064809	0.01103	221.1	0	0	1	0	1	0	0	0.1947	-2.1830	-0.1944	1.1363;
	121	122	0.000786	0.063023	0	200	0	0	1	0	1	0	0	17.4368	4.3213	-17.4343	-4.1183;
	121	178	0.008903	0.063604	0.11596	402.36	0	0	1	0	1	0	0	37.7649	-19.5851	-37.6213	8.9288;
	121	187	0.001063	0.007593	0.01384	402.36	0	0	1	0	1	0	0	-96.0280	53.2798	96.1568	-53.7421;
	123	124	0.000329	0.017481	0	400	0	0	1	0	1	0	0	117.4408	18.2535	-117.3923	-15.6754;
	123	125	0.00448	0.104562	0	170	0	0	1	0	1	0	0	-38.9448	-9.5029	39.0200	11.2573;
	123	126	0.00148	0.066043	0	170	0	0	1	0	1	0	0	-38.9949	-10.0771	39.0200	11.1956;
	123	127	0.001	0.031691	0	170	0	0	1	0	1	0	0	-39.0030	-10.2220	39.0200	10.7599;
	123	133	0.001459	0.010423	0.019	402.36	0	0	1	0	1	0	0	-32.3307	8.0511	32.3479	-9.7476;
	123	156	0.001117	0.007981	0.01455	402.36	0	0	1	0	1	0	0	-3.6176	2.4791	3.6178	-3.8705;
	124	193	0.006577	0.04582	0.00749	221.1	0	0	1	0	1	0	0	32.6151	4.4062	-32.5399	-4.5920;
	128	129	0.000753	0.044453	0	250	0	0	1	0	1	0	0	72.9025	21.4915	-72.8575	-18.8354;
	128	133	0.009554	0.068257	0.12444	402.36	0	0	1	0	1	0	0	-50.8972	9.3768	51.1766	-19.3498;
	130	144	0.022678	0.157988	0.02583	221.1	0	0	1	0	1	0	0	1.1451	2.3362	-1.1418	-4.7992;
	133	134	0.0002	0.013328	0	400	0	0	1	0	1	0	0	102.2571	-10.8534	-102.2350	12.3262;
	133	135	0.00043	0.033512	0	580	0	0	1	0	1	0	0	-133.8373	22.2615	133.9200	-15.8147;
	133	136	0.00043	0.027478	0	580	0	0	1	0	1	0	0	-133.8374	21.6512	133.9200	-16.3729;
	133	156	0.001958	0.013985	0.0255	402.36	0	0	1	0	1	0	0	22.0385	-6.0039	-22.0281	3.6375;
	134	140	0.010445	0.071357	0.01214	221.1	0	0	1	0	1	0	0	18.0183	3.8333	-17.9808	-4.7363;
	134	186	0.014463	0.093412	0.01782	221.1	0	0	1	0	1	0	0	36.4685	-10.1197	-36.2551	9.7808;
	138	139	0.026477	0.184455	0.03015	221.1	0	0	1	0	1	0	0	0.8833	3.3335	-0.8768	-6.2229;
	138	195	0.008728	0.05637	0.01075	221.1	0	0	1	0	1	0	0	-2.1223	-3.6892	2.1236	2.6394;
	141	148	0.01019	0.065817	0.01256	221.1	0	0	1	0	1	0	0	11.9801	2.2971	-11.9636	-3.3694;
	141	193	0.002896	0.018702	0.00357	221.1	0	0	1	0	1	0	0	-10.6292	-2.1005	10.6327	1.7874;
	144	162	0.006962	0.048504	0.00793	221.1	0	0	1	0	1	0	0	-4.4538	3.2039	4.4562	-3.9448;
	145	176	0.008799	0.060111	0.01023	221.1	0	0	1	0	1	0	0	-6.1588	-1.4095	6.1621	0.3887;
	145	185	0.010839	0.075509	0.01234	221.1	0	0	1	0	1	0	0	-4.5833	-1.6526	4.5856	0.4098;
	146	147	0.0025	0.10181	0	130.6	0	0	1	0	1	0	0	-35.4147	5.9384	35.4480	-4.5803;
	146	177	0.011064	0.07708	0.0126	221.1	0	0	1	0	1	0	0	22.5901	-2.5011	-22.5313	1.6941;
	149	150	0.000412	0.020251	0	400	0	0	1	0	1	0	0	63.3236	-10.1039	-63.3071	10.9172;
	149	151	0.02267	0.625521	0	20	0	0	1	0	1	0	0	-1.6193	-0.6080	1.6200	0.6263;
	149	152	0.00249	0.141687	0	100	0	0	1	0	1	0	0	-23.1560	6.2386	23.1700	-5.4427;
	149	153	0.00549	0.184603	0	100	0	0	1	0	1	0	0	-23.1390	6.4996	23.1700	-5.4580;
	149	154	0.00249	0.10294	0	100	0	0	1	0	1	0	0	-23.1561	6.0026	23.1700	-5.4273;
	149	155	0.00249	0.099835	0	100	0	0	1	0	1	0	0	-23.1561	5.9836	23.1700	-5.4258;
	150	185	0.013458	0.091934	0.01564	221.1	0	0	1	0	1	0	0	11.2106	0.8021	-11.1938	-2.2899;
	150	194	0.003138	0.021435	0.00365	221.1	0	0	1	0	1	0	0	36.4718	-13.3380	-36.4259	13.2758;
	156	157	0.000592	0.045654	0	300	0	0	1	0	1	0	0	18.4103	0.2330	-18.4082	-0.0713;
	160	161	0.00139	0.080288	0	180.2	0	0	1	0	1	0	0	0.0000	0.0000	0.0000	0.0000;
	160	181	0.004296	0.029345	0.00499	221.1	0	0	1	0	1	0	0	-7.4955	-3.6838	7.4984	3.1962;
	163	164	0.008207	0.11301	0	58.1	0	0	1	0	1	0	0	0.0000	0.0000	-0.0000	0.0000;
	163	165	0.0074	0.301657	0	65	0	0	1	0	1	0	0	0.0000	0.0000	-0.0000	-0.0000;
	163	166	0.016368	0.382075	0	42	0	0	1	0	1	0	0	0.0000	0.0000	-0.0000	0.0000;
	163	167	0.010476	0.196499	0	42	0	0	1	0	1	0	0	-2.8191	-1.0023	2.8200	1.0193;
	163	168	0.018	0.490983	0	40	0	0	1	0	1	0	0	0.0000	0.0000	-0.0000	-0.0000;
	163	169	0.016368	0.396417	0	40	0	0	1	0	1	0	0	0.0000	0.0000	-0.0000	-0.0000;
	163	170	0.016368	0.374902	0	35.6	0	0	1	0	1	0	0	-2.8186	-0.9578	2.8200	0.9899;
	163	179	0.00579	0.039557	0.00673	221.1	0	0	1	0	1	0	0	-29.1685	7.0343	29.2191	-7.3862;
	171	190	0.009866	0.0674	0.01147	221.1	0	0	1	0	1	0	0	6.1691	0.4791	-6.1652	-1.5768;
	171	195	0.011644	0.081116	0.01326	221.1	0	0	1	0	1	0	0	-10.8762	-1.8189	10.8904	0.6129;
	172	180	0.015296	0.106558	0.01742	221.1	0	0	1	0	1	0	0	1.6430	-3.3236	-1.6418	1.5332;
	172	199	0.024005	0.155042	0.02958	221.1	0	0	1	0	1	0	0	-4.9370	2.3868	4.9462	-5.3612;
	173	174	0.015373	0.099293	0.01894	221.1	0	0	1	0	1	0	0	-9.5432	-1.1097	9.5567	-0.7695;
	173	175	0.008572	0.055363	0.01056	221.1	0	0	1	0	1	0	0	4.2104	-0.4087	-4.2089	-0.6760;
	174	188	0.017952	0.12264	0.02087	221.1	0	0	1	0	1	0	0	-20.6941	15.6875	20.8166	-16.9868;
	178	179	0.000495	0.036157	0	250	0	0	1	0	1	0	0	61.6671	-29.8783	-61.6442	31.5540;
	180	191	0.026393	0.183866	0.03006	221.1	0	0	1	0	1	0	0	-2.9202	-4.5299	2.9246	1.4300;
	180	199	0.012185	0.078698	0.01501	221.1	0	0	1	0	1	0	0	-11.9153	10.2812	11.9464	-11.6234;
	181	182	0.01099	0.297746	0	60.3	0	0	1	0	1	0	0	-5.2470	-0.5948	5.2500	0.6764;
	181	183	0.004627	0.114254	0	65	0	0	1	0	1	0	0	-7.9771	-0.0318	7.9800	0.1032;
	181	194	0.004395	0.028384	0.00542	221.1	0	0	1	0	1	0	0	-20.8452	-19.9247	20.8807	19.5983;
	187	188	0.001394	0.044762	0	400	0	0	1	0	1	0	0	65.0496	-13.9732	-64.9877	15.9634;
	187	189	0.0003	0.007815	0	740	0	0	1	0	1	0	0	-170.6568	42.5724	170.7500	-40.1442;
	195	196	0.00285	0.060038	0	87.7	0	0	1	0	1	0	0	0.0000	-0.0000	0.0000	-0.0000;
	195	197	0.00285	0.191484	0	87.7	0	0	1	0	1	0	0	-0.0000	0.0000	0.0000	-0.0000;
];

%% generator cost data
%	2	startup	shutdown	n	c(n-1)	...	c0
%	Using quadratic cost curves only
mpc.gencost = [
	2	0	0	3	0.002	19	236.12;
	2	0	0	3	0.002	19	236.12;
	2	0	0	3	0.002	19	236.12;
	2	0	0	3	0.002	19	236.12;
	2	0	0	3	0.002	19	236.24;
	2	0	0	3	0	0	0;
	2	0	0	3	0.002	19	236.13;
	2	0	0	3	0.002	19	236.74;
	2	0	0	3	0.002	19	236.74;
	2	0	0	3	0.002	19	236.74;
	2	0	0	3	0.002	19	236.74;
	2	0	0	3	0.002	19	236.74;
	2	0	0	3	0.002	19	236.74;
	2	0	0	3	0.002	23.157	606;
	2	0	0	3	0.002	23.146	603.6;
	2	0	0	3	0.002	23.252	627;
	2	0	0	3	0.002	23.252	627;
	2	0	0	3	0.002	23.152	604.8;
	2	0	0	3	0.002	23.164	607.5;
	2	0	0	3	0.002	23.173	609.45;
	2	0	0	3	0.002	19	236.48;
	2	0	0	3	0	0	0;
	2	0	0	3	0	0	0;
	2	0	0	3	0	0	0;
	2	0	0	3	0	0	0;
	2	0	0	3	0.002	19	610.14;
	2	0	0	3	0.002	19	610.14;
	2	0	0	3	0.002	19	610.14;
	2	0	0	3	0.002	19	1261.33;
	2	0	0	3	0.002	19	1261.33;
	2	0	0	3	0	0	0;
	2	0	0	3	0.002	19	236.14;
	2	0	0	3	0.002	19	253.01;
	2	0	0	3	0.002	19	253.01;
	2	0	0	3	0.002	19	253.01;
	2	0	0	3	0.002	19	253.01;
	2	0	0	3	0.002	24.07	807.9;
	2	0	0	3	0.002	23.211	618;
	2	0	0	3	0.002	23.306	639;
	2	0	0	3	0.002	23.194	614.1;
	2	0	0	3	0.002	23.194	614.1;
	2	0	0	3	0.002	23.194	614.1;
	2	0	0	3	0.002	23.194	614.1;
	2	0	0	3	0.002	23.194	614.1;
	2	0	0	3	0.002	19	236.47;
	2	0	0	3	0.002	19	236.71;
	2	0	0	3	0	6.71	1272.13;
	2	0	0	3	0.002	23.588	701.25;
	2	0	0	3	0.002	23.588	701.25;
];

%% generator fuel type
mpc.genfuel = {
	"coal";
	"coal";
	"coal";
	"coal";
	"coal";
	"wind";
	"coal";
	"coal";
	"coal";
	"coal";
	"coal";
	"coal";
	"coal";
	"ng";
	"ng";
	"ng";
	"ng";
	"ng";
	"ng";
	"ng";
	"coal";
	"wind";
	"wind";
	"wind";
	"wind";
	"coal";
	"coal";
	"coal";
	"coal";
	"coal";
	"wind";
	"coal";
	"coal";
	"coal";
	"coal";
	"coal";
	"ng";
	"ng";
	"ng";
	"ng";
	"ng";
	"ng";
	"ng";
	"ng";
	"coal";
	"coal";
	"nuclear";
	"ng";
	"ng";

};

%% summary data
mpc.summary_stats = [
%	Nbus	Ngen	NgenON	Nline	NlineON	Nload	GenPCap	GenTotalP	GenTotalQ	GenPCapON	LoadTotP	LoadTotalQ	LoadShedP	LoadShedQ
	200	49	38	245	245	108	3379.59	947.877043	-115.494067	2997.49	942.616229	268.632531	0	0
];

%% solve time
mpc.solve_time = 0;
